<nodes>
   <node id="kiri" x="0.0" y="0.0"/>
   <node id="kanan" x="5000.0" y="0.0"/>
   <node id="berhenti" x="5000.2" y="0.0"/>
</nodes>
