<routes>
	<vTypeDistribution id="jeniskendaraan">
	 	<vType id="normalCar" accel="2" decel="4" sigma="0.5" length="4" speedFactor="1.0" speedDev="0.05" maxSpeed="30" color="0,1,0" probability="0.5"/>
	 	<vType id="truck" accel="1" decel="2" sigma="0.5" length="8" speedFactor="1.0" speedDev="0.1" maxSpeed="15" probability="0.5"/>
	 </vTypeDistribution>	
	 <route id="route0" edges="jalantol jalantol2"/>
	 <flow id="aliran" begin="0" end="20"  route="route0" period="2" type="jeniskendaraan" />
</routes>